
 OpenBabel11102118173D

 29 32  0  0  0  0  0  0  0  0999 V2000
   -1.4270    5.4960   17.7200 C   0  0  0  0  0  0  0  0  0  0  0  0
   -0.5250    6.5240   17.5400 N   0  0  0  0  0  4  0  0  0  0  0  0
   -1.2460    7.4840   17.0070 C   0  0  0  0  0  0  0  0  0  0  0  0
   -0.9350    8.7450   16.6230 N   0  0  0  0  0  0  0  0  0  0  0  0
   -1.9040    9.4800   16.1470 C   0  0  0  0  0  0  0  0  0  0  0  0
   -3.2060    9.0450   15.9840 N   0  0  0  0  0  0  0  0  0  0  0  0
   -3.5170    7.8360   16.3420 C   0  0  0  0  0  0  0  0  0  0  0  0
   -2.5180    7.0290   16.8730 N   0  0  0  0  0  0  0  0  0  0  0  0
   -2.6810    5.7640   17.3080 N   0  0  0  0  0  2  0  0  0  0  0  0
   -4.7820    7.3360   16.2170 N   0  0  0  0  0  0  0  0  0  0  0  0
   -1.6890   10.7670   15.7680 N   0  0  0  0  0  0  0  0  0  0  0  0
   -4.9880    6.3890   16.5190 H   0  0  0  0  0  0  0  0  0  0  0  0
   -5.5200    7.9170   15.8450 H   0  0  0  0  0  0  0  0  0  0  0  0
   -2.4800   11.2560   15.3690 H   0  0  0  0  0  0  0  0  0  0  0  0
   -1.0870    2.1020   19.1650 C   0  0  0  0  0  3  0  0  0  0  0  0
   -1.8700    3.1090   18.5510 C   0  0  0  0  0  3  0  0  0  0  0  0
   -1.0370    4.1920   18.3380 C   0  0  0  0  0  0  0  0  0  0  0  0
    0.2190    3.8890   18.7920 O   0  0  0  0  0  0  0  0  0  0  0  0
    0.1770    2.6280   19.2890 C   0  0  0  0  0  3  0  0  0  0  0  0
   -0.4050   11.4310   15.7310 C   0  0  0  0  0  2  0  0  0  0  0  0
   -0.5180   12.8240   15.1030 C   0  0  0  0  0  2  0  0  0  0  0  0
   -0.5460   13.9270   16.1390 C   0  0  0  0  0  0  0  0  0  0  0  0
    0.6260   14.6220   16.4650 C   0  0  0  0  0  3  0  0  0  0  0  0
    0.6080   15.6190   17.4410 C   0  0  0  0  0  3  0  0  0  0  0  0
   -0.5810   15.9210   18.0950 C   0  0  0  0  0  0  0  0  0  0  0  0
   -1.7560   15.2420   17.7860 C   0  0  0  0  0  3  0  0  0  0  0  0
   -1.7360   14.2440   16.8090 C   0  0  0  0  0  3  0  0  0  0  0  0
   -0.5530   16.8990   19.0440 O   0  0  0  0  0  0  0  0  0  0  0  0
   -1.4510   17.0130   19.3960 H   0  0  0  0  0  0  0  0  0  0  0  0
  1 17  1  0  0  0  0
  2  1  2  0  0  0  0
  3  2  2  0  0  0  0
  4  3  1  0  0  0  0
  5  4  2  0  0  0  0
  6  5  1  0  0  0  0
  6  7  2  0  0  0  0
  7  8  1  0  0  0  0
  8  3  1  0  0  0  0
  8  9  1  0  0  0  0
  9  1  1  0  0  0  0
 10  7  1  0  0  0  0
 10 12  1  0  0  0  0
 11  5  1  0  0  0  0
 13 10  1  0  0  0  0
 14 11  1  0  0  0  0
 15 19  2  0  0  0  0
 16 15  1  0  0  0  0
 17 16  2  0  0  0  0
 17 18  1  0  0  0  0
 18 19  1  0  0  0  0
 20 11  1  0  0  0  0
 21 20  1  0  0  0  0
 21 22  1  0  0  0  0
 22 23  2  0  0  0  0
 22 27  1  0  0  0  0
 23 24  1  0  0  0  0
 24 25  2  0  0  0  0
 25 28  1  0  0  0  0
 26 25  1  0  0  0  0
 27 26  2  0  0  0  0
 28 29  1  0  0  0  0
M  END
>  <minimizedAffinity>
-8.37216568

$$$$
