
 OpenBabel11102118173D

 29 32  0  0  0  0  0  0  0  0999 V2000
   -0.4070    5.0170   18.3020 C   0  0  0  0  0  0  0  0  0  0  0  0
   -1.5310    5.4440   17.6240 N   0  0  0  0  0  4  0  0  0  0  0  0
   -1.2910    6.7140   17.3880 C   0  0  0  0  0  0  0  0  0  0  0  0
   -2.0030    7.6660   16.7420 N   0  0  0  0  0  0  0  0  0  0  0  0
   -1.4650    8.8520   16.6450 C   0  0  0  0  0  0  0  0  0  0  0  0
   -0.2400    9.2000   17.1820 N   0  0  0  0  0  0  0  0  0  0  0  0
    0.4520    8.2980   17.8090 C   0  0  0  0  0  0  0  0  0  0  0  0
   -0.0770    7.0170   17.9160 N   0  0  0  0  0  0  0  0  0  0  0  0
    0.5210    5.9680   18.5150 N   0  0  0  0  0  2  0  0  0  0  0  0
    1.6730    8.5620   18.3620 N   0  0  0  0  0  0  0  0  0  0  0  0
   -2.0970    9.8600   15.9860 N   0  0  0  0  0  0  0  0  0  0  0  0
    2.1890    7.8270   18.8350 H   0  0  0  0  0  0  0  0  0  0  0  0
    2.0750    9.4860   18.2810 H   0  0  0  0  0  0  0  0  0  0  0  0
   -1.6340   10.7600   15.9930 H   0  0  0  0  0  0  0  0  0  0  0  0
   -0.6390    1.4780   19.3730 C   0  0  0  0  0  3  0  0  0  0  0  0
   -1.2510    2.6790   18.9380 C   0  0  0  0  0  3  0  0  0  0  0  0
   -0.2380    3.6020   18.7510 C   0  0  0  0  0  0  0  0  0  0  0  0
    0.9640    3.0160   19.0490 O   0  0  0  0  0  0  0  0  0  0  0  0
    0.7100    1.7370   19.4240 C   0  0  0  0  0  3  0  0  0  0  0  0
   -3.4300    9.7970   15.4310 C   0  0  0  0  0  2  0  0  0  0  0  0
   -4.3150   10.9190   15.9820 C   0  0  0  0  0  2  0  0  0  0  0  0
   -3.6020   12.2540   16.0210 C   0  0  0  0  0  0  0  0  0  0  0  0
   -2.9240   12.6610   17.1780 C   0  0  0  0  0  3  0  0  0  0  0  0
   -2.2930   13.9040   17.2250 C   0  0  0  0  0  3  0  0  0  0  0  0
   -2.3390   14.7430   16.1180 C   0  0  0  0  0  0  0  0  0  0  0  0
   -3.0080   14.3580   14.9610 C   0  0  0  0  0  3  0  0  0  0  0  0
   -3.6400   13.1140   14.9140 C   0  0  0  0  0  3  0  0  0  0  0  0
   -1.7110   15.9500   16.2090 O   0  0  0  0  0  0  0  0  0  0  0  0
   -1.8100   16.4140   15.3620 H   0  0  0  0  0  0  0  0  0  0  0  0
  1  9  1  0  0  0  0
  1 17  1  0  0  0  0
  2  1  2  0  0  0  0
  3  2  2  0  0  0  0
  3  8  1  0  0  0  0
  4  3  1  0  0  0  0
  5  4  2  0  0  0  0
  5  6  1  0  0  0  0
  6  7  2  0  0  0  0
  7  8  1  0  0  0  0
  7 10  1  0  0  0  0
  8  9  1  0  0  0  0
 10 12  1  0  0  0  0
 11 14  1  0  0  0  0
 11  5  1  0  0  0  0
 13 10  1  0  0  0  0
 15 19  2  0  0  0  0
 16 15  1  0  0  0  0
 17 16  2  0  0  0  0
 17 18  1  0  0  0  0
 18 19  1  0  0  0  0
 20 21  1  0  0  0  0
 20 11  1  0  0  0  0
 21 22  1  0  0  0  0
 22 23  1  0  0  0  0
 23 24  2  0  0  0  0
 25 28  1  0  0  0  0
 25 24  1  0  0  0  0
 26 25  2  0  0  0  0
 27 26  1  0  0  0  0
 27 22  2  0  0  0  0
 29 28  1  0  0  0  0
M  END
>  <minimizedAffinity>
-8.90845108

$$$$
