
 OpenBabel11102118163D

 29 32  0  0  0  0  0  0  0  0999 V2000
    0.2640   13.8200   14.7300 C   0  0  0  0  0  0  0  0  0  0  0  0
    0.5770   12.5610   15.2030 N   0  0  0  0  0  4  0  0  0  0  0  0
   -0.5930   11.9760   15.3340 C   0  0  0  0  0  0  0  0  0  0  0  0
   -0.9440   10.7320   15.7340 N   0  0  0  0  0  0  0  0  0  0  0  0
   -2.2170   10.4380   15.7240 C   0  0  0  0  0  0  0  0  0  0  0  0
   -3.2180   11.3200   15.3630 N   0  0  0  0  0  0  0  0  0  0  0  0
   -2.8960   12.5190   14.9830 C   0  0  0  0  0  0  0  0  0  0  0  0
   -1.5500   12.8640   14.9590 N   0  0  0  0  0  0  0  0  0  0  0  0
   -1.0520   14.0550   14.5730 N   0  0  0  0  0  2  0  0  0  0  0  0
   -3.8280   13.4450   14.6060 N   0  0  0  0  0  0  0  0  0  0  0  0
   -2.6560    9.2020   16.0800 N   0  0  0  0  0  0  0  0  0  0  0  0
   -3.5350   14.3690   14.3040 H   0  0  0  0  0  0  0  0  0  0  0  0
   -4.8090   13.2030   14.6060 H   0  0  0  0  0  0  0  0  0  0  0  0
   -3.6590    9.0670   16.0870 H   0  0  0  0  0  0  0  0  0  0  0  0
    2.9100   16.0190   13.3560 C   0  0  0  0  0  3  0  0  0  0  0  0
    2.0150   14.9300   13.2190 C   0  0  0  0  0  3  0  0  0  0  0  0
    1.3140   14.8330   14.4070 C   0  0  0  0  0  0  0  0  0  0  0  0
    1.7390   15.8160   15.2600 O   0  0  0  0  0  0  0  0  0  0  0  0
    2.7010   16.5240   14.6170 C   0  0  0  0  0  3  0  0  0  0  0  0
   -1.8330    8.1340   16.6020 C   0  0  0  0  0  2  0  0  0  0  0  0
   -2.6620    6.8720   16.8610 C   0  0  0  0  0  2  0  0  0  0  0  0
   -1.8570    5.7760   17.5260 C   0  0  0  0  0  0  0  0  0  0  0  0
   -2.4350    4.5220   17.7700 C   0  0  0  0  0  3  0  0  0  0  0  0
   -1.7040    3.5210   18.4100 C   0  0  0  0  0  3  0  0  0  0  0  0
   -0.3960    3.7700   18.8090 C   0  0  0  0  0  0  0  0  0  0  0  0
    0.1950    5.0080   18.5760 C   0  0  0  0  0  3  0  0  0  0  0  0
   -0.5370    6.0100   17.9360 C   0  0  0  0  0  3  0  0  0  0  0  0
    0.2800    2.7640   19.4330 O   0  0  0  0  0  0  0  0  0  0  0  0
    1.1790    3.0740   19.6330 H   0  0  0  0  0  0  0  0  0  0  0  0
  1  2  2  0  0  0  0
  2  3  2  0  0  0  0
  3  4  1  0  0  0  0
  5  4  2  0  0  0  0
  5 11  1  0  0  0  0
  6  5  1  0  0  0  0
  7  6  2  0  0  0  0
  8  7  1  0  0  0  0
  8  3  1  0  0  0  0
  9  1  1  0  0  0  0
  9  8  1  0  0  0  0
 10 13  1  0  0  0  0
 10  7  1  0  0  0  0
 11 14  1  0  0  0  0
 11 20  1  0  0  0  0
 12 10  1  0  0  0  0
 15 19  2  0  0  0  0
 16 15  1  0  0  0  0
 16 17  2  0  0  0  0
 17  1  1  0  0  0  0
 17 18  1  0  0  0  0
 19 18  1  0  0  0  0
 20 21  1  0  0  0  0
 21 22  1  0  0  0  0
 22 23  2  0  0  0  0
 22 27  1  0  0  0  0
 23 24  1  0  0  0  0
 24 25  2  0  0  0  0
 25 28  1  0  0  0  0
 26 25  1  0  0  0  0
 27 26  2  0  0  0  0
 28 29  1  0  0  0  0
M  END
>  <minimizedAffinity>
-9.14573479

$$$$

 OpenBabel11102118163D

 29 32  0  0  0  0  0  0  0  0999 V2000
    1.0450   15.5850   16.4160 C   0  0  0  0  0  0  0  0  0  0  0  0
    1.0210   14.3440   15.8110 N   0  0  0  0  0  4  0  0  0  0  0  0
   -0.0600   13.7780   16.3000 C   0  0  0  0  0  0  0  0  0  0  0  0
   -0.6320   12.5720   16.0770 N   0  0  0  0  0  0  0  0  0  0  0  0
   -1.7460   12.3140   16.7070 C   0  0  0  0  0  0  0  0  0  0  0  0
   -2.3550   13.1740   17.6010 N   0  0  0  0  0  0  0  0  0  0  0  0
   -1.8140   14.3320   17.8290 C   0  0  0  0  0  0  0  0  0  0  0  0
   -0.6380   14.6540   17.1620 N   0  0  0  0  0  0  0  0  0  0  0  0
    0.0340   15.8160   17.2740 N   0  0  0  0  0  2  0  0  0  0  0  0
   -2.3590   15.2390   18.6950 N   0  0  0  0  0  0  0  0  0  0  0  0
   -2.4040   11.1400   16.5180 N   0  0  0  0  0  0  0  0  0  0  0  0
   -1.9120   16.1390   18.8380 H   0  0  0  0  0  0  0  0  0  0  0  0
   -3.2200   15.0230   19.1760 H   0  0  0  0  0  0  0  0  0  0  0  0
   -3.2380   10.9980   17.0750 H   0  0  0  0  0  0  0  0  0  0  0  0
    3.5590   17.9450   15.0610 C   0  0  0  0  0  3  0  0  0  0  0  0
    2.5350   16.9860   14.8670 C   0  0  0  0  0  3  0  0  0  0  0  0
    2.1090   16.5930   16.1220 C   0  0  0  0  0  0  0  0  0  0  0  0
    2.8250   17.2710   17.0720 O   0  0  0  0  0  0  0  0  0  0  0  0
    3.6960   18.0820   16.4220 C   0  0  0  0  0  3  0  0  0  0  0  0
   -1.9310   10.0260   15.7260 C   0  0  0  0  0  2  0  0  0  0  0  0
   -2.6110    8.7190   16.1450 C   0  0  0  0  0  2  0  0  0  0  0  0
   -1.6620    7.7700   16.8460 C   0  0  0  0  0  0  0  0  0  0  0  0
   -0.3560    8.1740   17.1550 C   0  0  0  0  0  3  0  0  0  0  0  0
    0.5290    7.2910   17.7740 C   0  0  0  0  0  3  0  0  0  0  0  0
    0.1110    6.0020   18.0840 C   0  0  0  0  0  0  0  0  0  0  0  0
   -1.1810    5.5810   17.7860 C   0  0  0  0  0  3  0  0  0  0  0  0
   -2.0660    6.4660   17.1660 C   0  0  0  0  0  3  0  0  0  0  0  0
    1.0090    5.1710   18.6860 O   0  0  0  0  0  0  0  0  0  0  0  0
    0.5740    4.3200   18.8590 H   0  0  0  0  0  0  0  0  0  0  0  0
  1  9  1  0  0  0  0
  2  3  2  0  0  0  0
  2  1  2  0  0  0  0
  3  8  1  0  0  0  0
  4  3  1  0  0  0  0
  4  5  2  0  0  0  0
  5  6  1  0  0  0  0
  6  7  2  0  0  0  0
  7 10  1  0  0  0  0
  8  9  1  0  0  0  0
  8  7  1  0  0  0  0
 10 12  1  0  0  0  0
 10 13  1  0  0  0  0
 11  5  1  0  0  0  0
 11 14  1  0  0  0  0
 15 19  2  0  0  0  0
 16 15  1  0  0  0  0
 16 17  2  0  0  0  0
 17  1  1  0  0  0  0
 17 18  1  0  0  0  0
 19 18  1  0  0  0  0
 20 21  1  0  0  0  0
 20 11  1  0  0  0  0
 21 22  1  0  0  0  0
 22 23  2  0  0  0  0
 22 27  1  0  0  0  0
 23 24  1  0  0  0  0
 24 25  2  0  0  0  0
 25 28  1  0  0  0  0
 26 25  1  0  0  0  0
 27 26  2  0  0  0  0
 28 29  1  0  0  0  0
M  END
>  <minimizedAffinity>
-8.99002361

$$$$

 OpenBabel11102118163D

 29 32  0  0  0  0  0  0  0  0999 V2000
   -1.6550    5.5870   17.4730 C   0  0  0  0  0  0  0  0  0  0  0  0
   -2.5140    6.4280   16.7960 N   0  0  0  0  0  4  0  0  0  0  0  0
   -1.8860    7.5820   16.7950 C   0  0  0  0  0  0  0  0  0  0  0  0
   -2.2050    8.7880   16.2680 N   0  0  0  0  0  0  0  0  0  0  0  0
   -1.3360    9.7520   16.4120 C   0  0  0  0  0  0  0  0  0  0  0  0
   -0.1370    9.6270   17.0870 N   0  0  0  0  0  0  0  0  0  0  0  0
    0.1800    8.4780   17.6030 C   0  0  0  0  0  0  0  0  0  0  0  0
   -0.7100    7.4200   17.4540 N   0  0  0  0  0  0  0  0  0  0  0  0
   -0.5210    6.1670   17.9100 N   0  0  0  0  0  2  0  0  0  0  0  0
    1.3490    8.2740   18.2800 N   0  0  0  0  0  0  0  0  0  0  0  0
   -1.5610   10.9850   15.8880 N   0  0  0  0  0  0  0  0  0  0  0  0
    1.5660    7.3570   18.6590 H   0  0  0  0  0  0  0  0  0  0  0  0
    2.0110    9.0310   18.3850 H   0  0  0  0  0  0  0  0  0  0  0  0
   -0.8590   11.6890   16.0790 H   0  0  0  0  0  0  0  0  0  0  0  0
   -2.0940    2.0760   18.5710 C   0  0  0  0  0  3  0  0  0  0  0  0
   -1.6130    3.3880   18.7960 C   0  0  0  0  0  3  0  0  0  0  0  0
   -1.9630    4.1400   17.6890 C   0  0  0  0  0  0  0  0  0  0  0  0
   -2.6390    3.3460   16.8020 O   0  0  0  0  0  0  0  0  0  0  0  0
   -2.7120    2.1040   17.3430 C   0  0  0  0  0  3  0  0  0  0  0  0
   -2.7770   11.4140   15.2330 C   0  0  0  0  0  2  0  0  0  0  0  0
   -3.6460   12.2540   16.1740 C   0  0  0  0  0  2  0  0  0  0  0  0
   -3.0570   13.6220   16.4420 C   0  0  0  0  0  0  0  0  0  0  0  0
   -2.4840   13.9150   17.6870 C   0  0  0  0  0  3  0  0  0  0  0  0
   -1.9680   15.1850   17.9450 C   0  0  0  0  0  3  0  0  0  0  0  0
   -2.0250   16.1650   16.9620 C   0  0  0  0  0  0  0  0  0  0  0  0
   -2.5900   15.8950   15.7190 C   0  0  0  0  0  3  0  0  0  0  0  0
   -3.1070   14.6240   15.4610 C   0  0  0  0  0  3  0  0  0  0  0  0
   -1.5120   17.3930   17.2580 O   0  0  0  0  0  0  0  0  0  0  0  0
   -1.6020   17.9620   16.4770 H   0  0  0  0  0  0  0  0  0  0  0  0
  1 17  1  0  0  0  0
  1  9  1  0  0  0  0
  2  1  2  0  0  0  0
  3  2  2  0  0  0  0
  3  8  1  0  0  0  0
  4  5  2  0  0  0  0
  4  3  1  0  0  0  0
  5  6  1  0  0  0  0
  6  7  2  0  0  0  0
  7 10  1  0  0  0  0
  8  7  1  0  0  0  0
  8  9  1  0  0  0  0
 10 13  1  0  0  0  0
 10 12  1  0  0  0  0
 11 14  1  0  0  0  0
 11  5  1  0  0  0  0
 15 16  1  0  0  0  0
 17 16  2  0  0  0  0
 18 19  1  0  0  0  0
 18 17  1  0  0  0  0
 19 15  2  0  0  0  0
 20 11  1  0  0  0  0
 20 21  1  0  0  0  0
 21 22  1  0  0  0  0
 22 23  1  0  0  0  0
 23 24  2  0  0  0  0
 25 28  1  0  0  0  0
 25 24  1  0  0  0  0
 26 25  2  0  0  0  0
 27 26  1  0  0  0  0
 27 22  2  0  0  0  0
 29 28  1  0  0  0  0
M  END
>  <minimizedAffinity>
-8.93101692

$$$$

 OpenBabel11102118163D

 29 32  0  0  0  0  0  0  0  0999 V2000
   -0.4070    5.0170   18.3020 C   0  0  0  0  0  0  0  0  0  0  0  0
   -1.5310    5.4440   17.6240 N   0  0  0  0  0  4  0  0  0  0  0  0
   -1.2910    6.7140   17.3880 C   0  0  0  0  0  0  0  0  0  0  0  0
   -2.0030    7.6660   16.7420 N   0  0  0  0  0  0  0  0  0  0  0  0
   -1.4650    8.8520   16.6450 C   0  0  0  0  0  0  0  0  0  0  0  0
   -0.2400    9.2000   17.1820 N   0  0  0  0  0  0  0  0  0  0  0  0
    0.4520    8.2980   17.8090 C   0  0  0  0  0  0  0  0  0  0  0  0
   -0.0770    7.0170   17.9160 N   0  0  0  0  0  0  0  0  0  0  0  0
    0.5210    5.9680   18.5150 N   0  0  0  0  0  2  0  0  0  0  0  0
    1.6730    8.5620   18.3620 N   0  0  0  0  0  0  0  0  0  0  0  0
   -2.0970    9.8600   15.9860 N   0  0  0  0  0  0  0  0  0  0  0  0
    2.1890    7.8270   18.8350 H   0  0  0  0  0  0  0  0  0  0  0  0
    2.0750    9.4860   18.2810 H   0  0  0  0  0  0  0  0  0  0  0  0
   -1.6340   10.7600   15.9930 H   0  0  0  0  0  0  0  0  0  0  0  0
   -0.6390    1.4780   19.3730 C   0  0  0  0  0  3  0  0  0  0  0  0
   -1.2510    2.6790   18.9380 C   0  0  0  0  0  3  0  0  0  0  0  0
   -0.2380    3.6020   18.7510 C   0  0  0  0  0  0  0  0  0  0  0  0
    0.9640    3.0160   19.0490 O   0  0  0  0  0  0  0  0  0  0  0  0
    0.7100    1.7370   19.4240 C   0  0  0  0  0  3  0  0  0  0  0  0
   -3.4300    9.7970   15.4310 C   0  0  0  0  0  2  0  0  0  0  0  0
   -4.3150   10.9190   15.9820 C   0  0  0  0  0  2  0  0  0  0  0  0
   -3.6020   12.2540   16.0210 C   0  0  0  0  0  0  0  0  0  0  0  0
   -2.9240   12.6610   17.1780 C   0  0  0  0  0  3  0  0  0  0  0  0
   -2.2930   13.9040   17.2250 C   0  0  0  0  0  3  0  0  0  0  0  0
   -2.3390   14.7430   16.1180 C   0  0  0  0  0  0  0  0  0  0  0  0
   -3.0080   14.3580   14.9610 C   0  0  0  0  0  3  0  0  0  0  0  0
   -3.6400   13.1140   14.9140 C   0  0  0  0  0  3  0  0  0  0  0  0
   -1.7110   15.9500   16.2090 O   0  0  0  0  0  0  0  0  0  0  0  0
   -1.8100   16.4140   15.3620 H   0  0  0  0  0  0  0  0  0  0  0  0
  1  9  1  0  0  0  0
  1 17  1  0  0  0  0
  2  1  2  0  0  0  0
  3  2  2  0  0  0  0
  3  8  1  0  0  0  0
  4  3  1  0  0  0  0
  5  4  2  0  0  0  0
  5  6  1  0  0  0  0
  6  7  2  0  0  0  0
  7  8  1  0  0  0  0
  7 10  1  0  0  0  0
  8  9  1  0  0  0  0
 10 12  1  0  0  0  0
 11 14  1  0  0  0  0
 11  5  1  0  0  0  0
 13 10  1  0  0  0  0
 15 19  2  0  0  0  0
 16 15  1  0  0  0  0
 17 16  2  0  0  0  0
 17 18  1  0  0  0  0
 18 19  1  0  0  0  0
 20 21  1  0  0  0  0
 20 11  1  0  0  0  0
 21 22  1  0  0  0  0
 22 23  1  0  0  0  0
 23 24  2  0  0  0  0
 25 28  1  0  0  0  0
 25 24  1  0  0  0  0
 26 25  2  0  0  0  0
 27 26  1  0  0  0  0
 27 22  2  0  0  0  0
 29 28  1  0  0  0  0
M  END
>  <minimizedAffinity>
-8.90845108

$$$$

 OpenBabel11102118163D

 29 32  0  0  0  0  0  0  0  0999 V2000
   -0.3220   12.9960   15.3210 C   0  0  0  0  0  0  0  0  0  0  0  0
    0.0780   11.7360   15.7160 N   0  0  0  0  0  4  0  0  0  0  0  0
   -1.0500   11.0700   15.8270 C   0  0  0  0  0  0  0  0  0  0  0  0
   -1.3140    9.7840   16.1580 N   0  0  0  0  0  0  0  0  0  0  0  0
   -2.5650    9.4100   16.1460 C   0  0  0  0  0  0  0  0  0  0  0  0
   -3.6270   10.2430   15.8490 N   0  0  0  0  0  0  0  0  0  0  0  0
   -3.3880   11.4800   15.5350 C   0  0  0  0  0  0  0  0  0  0  0  0
   -2.0670   11.9130   15.5160 N   0  0  0  0  0  0  0  0  0  0  0  0
   -1.6530   13.1540   15.1930 N   0  0  0  0  0  2  0  0  0  0  0  0
   -4.3830   12.3640   15.2230 N   0  0  0  0  0  0  0  0  0  0  0  0
   -2.9190    8.1290   16.4350 N   0  0  0  0  0  0  0  0  0  0  0  0
   -4.1550   13.3210   14.9720 H   0  0  0  0  0  0  0  0  0  0  0  0
   -5.3460   12.0590   15.2210 H   0  0  0  0  0  0  0  0  0  0  0  0
   -3.9110    7.9290   16.4460 H   0  0  0  0  0  0  0  0  0  0  0  0
    2.1380   15.4510   14.0380 C   0  0  0  0  0  3  0  0  0  0  0  0
    1.3010   14.3260   13.8440 C   0  0  0  0  0  3  0  0  0  0  0  0
    0.6560   14.0920   15.0450 C   0  0  0  0  0  0  0  0  0  0  0  0
    1.0600   15.0260   15.9610 O   0  0  0  0  0  0  0  0  0  0  0  0
    1.9530   15.8390   15.3440 C   0  0  0  0  0  3  0  0  0  0  0  0
   -2.0210    7.0890   16.8840 C   0  0  0  0  0  2  0  0  0  0  0  0
   -2.7630    5.7630   17.0810 C   0  0  0  0  0  2  0  0  0  0  0  0
   -1.9200    4.7250   17.7900 C   0  0  0  0  0  0  0  0  0  0  0  0
   -0.6530    5.0610   18.2870 C   0  0  0  0  0  3  0  0  0  0  0  0
    0.1370    4.0980   18.9140 C   0  0  0  0  0  3  0  0  0  0  0  0
   -0.3360    2.7970   19.0450 C   0  0  0  0  0  0  0  0  0  0  0  0
   -1.5900    2.4440   18.5590 C   0  0  0  0  0  3  0  0  0  0  0  0
   -2.3810    3.4080   17.9310 C   0  0  0  0  0  3  0  0  0  0  0  0
    0.4710    1.8880   19.6630 O   0  0  0  0  0  0  0  0  0  0  0  0
    0.0050    1.0370   19.6990 H   0  0  0  0  0  0  0  0  0  0  0  0
  1  2  2  0  0  0  0
  2  3  2  0  0  0  0
  3  4  1  0  0  0  0
  5  4  2  0  0  0  0
  5 11  1  0  0  0  0
  6  5  1  0  0  0  0
  7  6  2  0  0  0  0
  8  7  1  0  0  0  0
  8  3  1  0  0  0  0
  9  1  1  0  0  0  0
  9  8  1  0  0  0  0
 10  7  1  0  0  0  0
 11 14  1  0  0  0  0
 11 20  1  0  0  0  0
 12 10  1  0  0  0  0
 13 10  1  0  0  0  0
 15 19  2  0  0  0  0
 16 15  1  0  0  0  0
 16 17  2  0  0  0  0
 17  1  1  0  0  0  0
 17 18  1  0  0  0  0
 19 18  1  0  0  0  0
 20 21  1  0  0  0  0
 21 22  1  0  0  0  0
 22 27  2  0  0  0  0
 22 23  1  0  0  0  0
 23 24  2  0  0  0  0
 24 25  1  0  0  0  0
 25 28  1  0  0  0  0
 26 25  2  0  0  0  0
 27 26  1  0  0  0  0
 28 29  1  0  0  0  0
M  END
>  <minimizedAffinity>
-8.89107227

$$$$

 OpenBabel11102118163D

 29 32  0  0  0  0  0  0  0  0999 V2000
   -1.1820    4.4860   18.1190 C   0  0  0  0  0  0  0  0  0  0  0  0
   -0.7060    5.7130   17.7040 N   0  0  0  0  0  4  0  0  0  0  0  0
   -1.7790    6.3340   17.2680 C   0  0  0  0  0  0  0  0  0  0  0  0
   -1.9640    7.5740   16.7580 N   0  0  0  0  0  0  0  0  0  0  0  0
   -3.1850    7.9130   16.4410 C   0  0  0  0  0  0  0  0  0  0  0  0
   -4.2820    7.0840   16.5650 N   0  0  0  0  0  0  0  0  0  0  0  0
   -4.1190    5.8890   17.0490 C   0  0  0  0  0  0  0  0  0  0  0  0
   -2.8370    5.4970   17.4170 N   0  0  0  0  0  0  0  0  0  0  0  0
   -2.5050    4.3050   17.9500 N   0  0  0  0  0  2  0  0  0  0  0  0
   -5.1550    5.0130   17.2070 N   0  0  0  0  0  0  0  0  0  0  0  0
   -3.4660    9.1500   15.9510 N   0  0  0  0  0  0  0  0  0  0  0  0
   -4.9890    4.0910   17.5990 H   0  0  0  0  0  0  0  0  0  0  0  0
   -6.0940    5.2900   16.9550 H   0  0  0  0  0  0  0  0  0  0  0  0
   -4.4290    9.3200   15.6900 H   0  0  0  0  0  0  0  0  0  0  0  0
    0.4860    1.5490   19.6420 C   0  0  0  0  0  3  0  0  0  0  0  0
   -0.6700    2.1790   19.1200 C   0  0  0  0  0  3  0  0  0  0  0  0
   -0.2910    3.4490   18.7230 C   0  0  0  0  0  0  0  0  0  0  0  0
    1.0440    3.6190   18.9760 O   0  0  0  0  0  0  0  0  0  0  0  0
    1.5020    2.4680   19.5310 C   0  0  0  0  0  3  0  0  0  0  0  0
   -2.4920   10.1660   15.6210 C   0  0  0  0  0  2  0  0  0  0  0  0
   -2.7300   11.4460   16.4290 C   0  0  0  0  0  2  0  0  0  0  0  0
   -1.5750   12.4180   16.3300 C   0  0  0  0  0  0  0  0  0  0  0  0
   -0.4450   12.1010   15.5640 C   0  0  0  0  0  3  0  0  0  0  0  0
    0.6330   12.9840   15.4960 C   0  0  0  0  0  3  0  0  0  0  0  0
    0.5850   14.1840   16.1950 C   0  0  0  0  0  0  0  0  0  0  0  0
   -0.5270   14.5180   16.9610 C   0  0  0  0  0  3  0  0  0  0  0  0
   -1.6050   13.6340   17.0290 C   0  0  0  0  0  3  0  0  0  0  0  0
    1.6620   15.0160   16.1030 O   0  0  0  0  0  0  0  0  0  0  0  0
    1.4790   15.8160   16.6210 H   0  0  0  0  0  0  0  0  0  0  0  0
  1 17  1  0  0  0  0
  2  1  2  0  0  0  0
  3  8  1  0  0  0  0
  3  2  2  0  0  0  0
  4  3  1  0  0  0  0
  5  6  1  0  0  0  0
  5  4  2  0  0  0  0
  6  7  2  0  0  0  0
  7 10  1  0  0  0  0
  7  8  1  0  0  0  0
  8  9  1  0  0  0  0
  9  1  1  0  0  0  0
 10 12  1  0  0  0  0
 11  5  1  0  0  0  0
 13 10  1  0  0  0  0
 14 11  1  0  0  0  0
 16 15  1  0  0  0  0
 17 18  1  0  0  0  0
 17 16  2  0  0  0  0
 18 19  1  0  0  0  0
 19 15  2  0  0  0  0
 20 11  1  0  0  0  0
 20 21  1  0  0  0  0
 22 21  1  0  0  0  0
 22 27  1  0  0  0  0
 23 22  2  0  0  0  0
 24 23  1  0  0  0  0
 24 25  2  0  0  0  0
 25 26  1  0  0  0  0
 26 27  2  0  0  0  0
 28 25  1  0  0  0  0
 28 29  1  0  0  0  0
M  END
>  <minimizedAffinity>
-8.8870182

$$$$

 OpenBabel11102118163D

 29 32  0  0  0  0  0  0  0  0999 V2000
   -2.9910   12.1290   15.3590 C   0  0  0  0  0  0  0  0  0  0  0  0
   -4.0420   11.2430   15.2300 N   0  0  0  0  0  4  0  0  0  0  0  0
   -3.5500   10.1070   15.6700 C   0  0  0  0  0  0  0  0  0  0  0  0
   -4.0970    8.8780   15.8150 N   0  0  0  0  0  0  0  0  0  0  0  0
   -3.3390    7.9430   16.3230 C   0  0  0  0  0  0  0  0  0  0  0  0
   -2.0190    8.1220   16.6900 N   0  0  0  0  0  0  0  0  0  0  0  0
   -1.4800    9.2950   16.5520 C   0  0  0  0  0  0  0  0  0  0  0  0
   -2.2590   10.3220   16.0340 N   0  0  0  0  0  0  0  0  0  0  0  0
   -1.8570   11.5940   15.8470 N   0  0  0  0  0  2  0  0  0  0  0  0
   -0.1830    9.5520   16.8980 N   0  0  0  0  0  0  0  0  0  0  0  0
   -3.8170    6.6870   16.5320 N   0  0  0  0  0  0  0  0  0  0  0  0
    0.1990   10.4860   16.7850 H   0  0  0  0  0  0  0  0  0  0  0  0
    0.3910    8.8170   17.2880 H   0  0  0  0  0  0  0  0  0  0  0  0
   -3.1550    6.0090   16.8890 H   0  0  0  0  0  0  0  0  0  0  0  0
   -3.0770   15.8200   15.0570 C   0  0  0  0  0  3  0  0  0  0  0  0
   -2.7870   14.6490   15.7970 C   0  0  0  0  0  3  0  0  0  0  0  0
   -3.1180   13.5730   14.9940 C   0  0  0  0  0  0  0  0  0  0  0  0
   -3.5940   14.0370   13.7960 O   0  0  0  0  0  0  0  0  0  0  0  0
   -3.5660   15.3920   13.8450 C   0  0  0  0  0  3  0  0  0  0  0  0
   -5.1210    6.2060   16.1360 C   0  0  0  0  0  2  0  0  0  0  0  0
   -5.0720    4.7230   15.7540 C   0  0  0  0  0  2  0  0  0  0  0  0
   -4.0950    3.9370   16.6010 C   0  0  0  0  0  0  0  0  0  0  0  0
   -3.8690    4.2940   17.9370 C   0  0  0  0  0  3  0  0  0  0  0  0
   -2.9460    3.5890   18.7100 C   0  0  0  0  0  3  0  0  0  0  0  0
   -2.2460    2.5270   18.1500 C   0  0  0  0  0  0  0  0  0  0  0  0
   -2.4560    2.1570   16.8250 C   0  0  0  0  0  3  0  0  0  0  0  0
   -3.3790    2.8630   16.0520 C   0  0  0  0  0  3  0  0  0  0  0  0
   -1.3520    1.8680   18.9400 O   0  0  0  0  0  0  0  0  0  0  0  0
   -0.9580    1.1460   18.4250 H   0  0  0  0  0  0  0  0  0  0  0  0
  1  9  1  0  0  0  0
  2  1  2  0  0  0  0
  2  3  2  0  0  0  0
  3  4  1  0  0  0  0
  3  8  1  0  0  0  0
  4  5  2  0  0  0  0
  5 11  1  0  0  0  0
  5  6  1  0  0  0  0
  7  6  2  0  0  0  0
  7 10  1  0  0  0  0
  8  7  1  0  0  0  0
  9  8  1  0  0  0  0
 10 13  1  0  0  0  0
 11 14  1  0  0  0  0
 12 10  1  0  0  0  0
 15 16  1  0  0  0  0
 17  1  1  0  0  0  0
 17 16  2  0  0  0  0
 18 19  1  0  0  0  0
 18 17  1  0  0  0  0
 19 15  2  0  0  0  0
 20 11  1  0  0  0  0
 21 20  1  0  0  0  0
 21 22  1  0  0  0  0
 22 23  1  0  0  0  0
 23 24  2  0  0  0  0
 25 24  1  0  0  0  0
 25 28  1  0  0  0  0
 26 25  2  0  0  0  0
 27 22  2  0  0  0  0
 27 26  1  0  0  0  0
 29 28  1  0  0  0  0
M  END
>  <minimizedAffinity>
-8.60855865

$$$$

 OpenBabel11102118163D

 29 32  0  0  0  0  0  0  0  0999 V2000
   -1.4270    5.4960   17.7200 C   0  0  0  0  0  0  0  0  0  0  0  0
   -0.5250    6.5240   17.5400 N   0  0  0  0  0  4  0  0  0  0  0  0
   -1.2460    7.4840   17.0070 C   0  0  0  0  0  0  0  0  0  0  0  0
   -0.9350    8.7450   16.6230 N   0  0  0  0  0  0  0  0  0  0  0  0
   -1.9040    9.4800   16.1470 C   0  0  0  0  0  0  0  0  0  0  0  0
   -3.2060    9.0450   15.9840 N   0  0  0  0  0  0  0  0  0  0  0  0
   -3.5170    7.8360   16.3420 C   0  0  0  0  0  0  0  0  0  0  0  0
   -2.5180    7.0290   16.8730 N   0  0  0  0  0  0  0  0  0  0  0  0
   -2.6810    5.7640   17.3080 N   0  0  0  0  0  2  0  0  0  0  0  0
   -4.7820    7.3360   16.2170 N   0  0  0  0  0  0  0  0  0  0  0  0
   -1.6890   10.7670   15.7680 N   0  0  0  0  0  0  0  0  0  0  0  0
   -4.9880    6.3890   16.5190 H   0  0  0  0  0  0  0  0  0  0  0  0
   -5.5200    7.9170   15.8450 H   0  0  0  0  0  0  0  0  0  0  0  0
   -2.4800   11.2560   15.3690 H   0  0  0  0  0  0  0  0  0  0  0  0
   -1.0870    2.1020   19.1650 C   0  0  0  0  0  3  0  0  0  0  0  0
   -1.8700    3.1090   18.5510 C   0  0  0  0  0  3  0  0  0  0  0  0
   -1.0370    4.1920   18.3380 C   0  0  0  0  0  0  0  0  0  0  0  0
    0.2190    3.8890   18.7920 O   0  0  0  0  0  0  0  0  0  0  0  0
    0.1770    2.6280   19.2890 C   0  0  0  0  0  3  0  0  0  0  0  0
   -0.4050   11.4310   15.7310 C   0  0  0  0  0  2  0  0  0  0  0  0
   -0.5180   12.8240   15.1030 C   0  0  0  0  0  2  0  0  0  0  0  0
   -0.5460   13.9270   16.1390 C   0  0  0  0  0  0  0  0  0  0  0  0
    0.6260   14.6220   16.4650 C   0  0  0  0  0  3  0  0  0  0  0  0
    0.6080   15.6190   17.4410 C   0  0  0  0  0  3  0  0  0  0  0  0
   -0.5810   15.9210   18.0950 C   0  0  0  0  0  0  0  0  0  0  0  0
   -1.7560   15.2420   17.7860 C   0  0  0  0  0  3  0  0  0  0  0  0
   -1.7360   14.2440   16.8090 C   0  0  0  0  0  3  0  0  0  0  0  0
   -0.5530   16.8990   19.0440 O   0  0  0  0  0  0  0  0  0  0  0  0
   -1.4510   17.0130   19.3960 H   0  0  0  0  0  0  0  0  0  0  0  0
  1 17  1  0  0  0  0
  2  1  2  0  0  0  0
  3  2  2  0  0  0  0
  4  3  1  0  0  0  0
  5  4  2  0  0  0  0
  6  5  1  0  0  0  0
  6  7  2  0  0  0  0
  7  8  1  0  0  0  0
  8  3  1  0  0  0  0
  8  9  1  0  0  0  0
  9  1  1  0  0  0  0
 10  7  1  0  0  0  0
 10 12  1  0  0  0  0
 11  5  1  0  0  0  0
 13 10  1  0  0  0  0
 14 11  1  0  0  0  0
 15 19  2  0  0  0  0
 16 15  1  0  0  0  0
 17 16  2  0  0  0  0
 17 18  1  0  0  0  0
 18 19  1  0  0  0  0
 20 11  1  0  0  0  0
 21 20  1  0  0  0  0
 21 22  1  0  0  0  0
 22 23  2  0  0  0  0
 22 27  1  0  0  0  0
 23 24  1  0  0  0  0
 24 25  2  0  0  0  0
 25 28  1  0  0  0  0
 26 25  1  0  0  0  0
 27 26  2  0  0  0  0
 28 29  1  0  0  0  0
M  END
>  <minimizedAffinity>
-8.37216568

$$$$

 OpenBabel11102118163D

 29 32  0  0  0  0  0  0  0  0999 V2000
    0.0570   14.7180   15.8940 C   0  0  0  0  0  0  0  0  0  0  0  0
    0.5820   13.4820   16.2110 N   0  0  0  0  0  4  0  0  0  0  0  0
   -0.3780   12.6430   15.8910 C   0  0  0  0  0  0  0  0  0  0  0  0
   -0.4580   11.2930   15.9480 N   0  0  0  0  0  0  0  0  0  0  0  0
   -1.5600   10.7410   15.5160 C   0  0  0  0  0  0  0  0  0  0  0  0
   -2.6490   11.4440   15.0380 N   0  0  0  0  0  0  0  0  0  0  0  0
   -2.5890   12.7400   14.9830 C   0  0  0  0  0  0  0  0  0  0  0  0
   -1.4240   13.3640   15.4140 N   0  0  0  0  0  0  0  0  0  0  0  0
   -1.1960   14.6920   15.4030 N   0  0  0  0  0  2  0  0  0  0  0  0
   -3.6220   13.5040   14.5180 N   0  0  0  0  0  0  0  0  0  0  0  0
   -1.7130    9.3900   15.5080 N   0  0  0  0  0  0  0  0  0  0  0  0
   -3.5320   14.5150   14.4800 H   0  0  0  0  0  0  0  0  0  0  0  0
   -4.4690   13.0620   14.1900 H   0  0  0  0  0  0  0  0  0  0  0  0
   -2.6130    9.0430   15.1990 H   0  0  0  0  0  0  0  0  0  0  0  0
    2.4210   17.5700   15.9420 C   0  0  0  0  0  3  0  0  0  0  0  0
    2.0520   16.2800   15.4890 C   0  0  0  0  0  3  0  0  0  0  0  0
    0.8340   15.9820   16.0730 C   0  0  0  0  0  0  0  0  0  0  0  0
    0.4430   17.0340   16.8580 O   0  0  0  0  0  0  0  0  0  0  0  0
    1.4060   17.9850   16.7730 C   0  0  0  0  0  3  0  0  0  0  0  0
   -0.7770    8.4330   16.0530 C   0  0  0  0  0  2  0  0  0  0  0  0
   -1.3580    7.7270   17.2820 C   0  0  0  0  0  2  0  0  0  0  0  0
   -2.2770    6.5820   16.9150 C   0  0  0  0  0  0  0  0  0  0  0  0
   -1.7690    5.2830   16.7750 C   0  0  0  0  0  3  0  0  0  0  0  0
   -2.6090    4.2320   16.4060 C   0  0  0  0  0  3  0  0  0  0  0  0
   -3.9580    4.4770   16.1750 C   0  0  0  0  0  0  0  0  0  0  0  0
   -4.4810    5.7590   16.3080 C   0  0  0  0  0  3  0  0  0  0  0  0
   -3.6400    6.8100   16.6760 C   0  0  0  0  0  3  0  0  0  0  0  0
   -4.7420    3.4220   15.8140 O   0  0  0  0  0  0  0  0  0  0  0  0
   -5.6540    3.7370   15.7070 H   0  0  0  0  0  0  0  0  0  0  0  0
  1 17  1  0  0  0  0
  1  2  2  0  0  0  0
  3  4  1  0  0  0  0
  3  2  2  0  0  0  0
  5  4  2  0  0  0  0
  6  5  1  0  0  0  0
  7  6  2  0  0  0  0
  7  8  1  0  0  0  0
  8  3  1  0  0  0  0
  9  8  1  0  0  0  0
  9  1  1  0  0  0  0
 10  7  1  0  0  0  0
 11  5  1  0  0  0  0
 11 20  1  0  0  0  0
 12 10  1  0  0  0  0
 13 10  1  0  0  0  0
 14 11  1  0  0  0  0
 15 19  2  0  0  0  0
 16 15  1  0  0  0  0
 16 17  2  0  0  0  0
 17 18  1  0  0  0  0
 19 18  1  0  0  0  0
 20 21  1  0  0  0  0
 22 21  1  0  0  0  0
 23 22  1  0  0  0  0
 24 23  2  0  0  0  0
 25 26  2  0  0  0  0
 25 24  1  0  0  0  0
 26 27  1  0  0  0  0
 27 22  2  0  0  0  0
 28 25  1  0  0  0  0
 29 28  1  0  0  0  0
M  END
>  <minimizedAffinity>
-8.17167664

$$$$

 OpenBabel11102118163D

 29 32  0  0  0  0  0  0  0  0999 V2000
   -1.4690   13.1550   15.9200 C   0  0  0  0  0  0  0  0  0  0  0  0
   -0.6470   12.1050   16.2770 N   0  0  0  0  0  4  0  0  0  0  0  0
   -1.4370   11.0560   16.2180 C   0  0  0  0  0  0  0  0  0  0  0  0
   -1.2120    9.7390   16.4360 N   0  0  0  0  0  0  0  0  0  0  0  0
   -2.2170    8.9250   16.2610 C   0  0  0  0  0  0  0  0  0  0  0  0
   -3.4910    9.3230   15.9000 N   0  0  0  0  0  0  0  0  0  0  0  0
   -3.7220   10.5840   15.6940 C   0  0  0  0  0  0  0  0  0  0  0  0
   -2.6720   11.4810   15.8500 N   0  0  0  0  0  0  0  0  0  0  0  0
   -2.7430   12.8130   15.6550 N   0  0  0  0  0  2  0  0  0  0  0  0
   -4.9520   11.0550   15.3300 N   0  0  0  0  0  0  0  0  0  0  0  0
   -2.0730    7.5830   16.4270 N   0  0  0  0  0  0  0  0  0  0  0  0
   -5.0910   12.0470   15.1660 H   0  0  0  0  0  0  0  0  0  0  0  0
   -5.7210   10.4120   15.2010 H   0  0  0  0  0  0  0  0  0  0  0  0
   -2.9100    7.0250   16.3150 H   0  0  0  0  0  0  0  0  0  0  0  0
   -0.4730   16.6230   15.0780 C   0  0  0  0  0  3  0  0  0  0  0  0
   -1.0970   15.4000   14.7330 C   0  0  0  0  0  3  0  0  0  0  0  0
   -0.9680   14.5610   15.8250 C   0  0  0  0  0  0  0  0  0  0  0  0
   -0.2970   15.2190   16.8200 O   0  0  0  0  0  0  0  0  0  0  0  0
   -0.0020   16.4600   16.3590 C   0  0  0  0  0  3  0  0  0  0  0  0
   -0.8830    6.9170   16.9070 C   0  0  0  0  0  2  0  0  0  0  0  0
   -1.2280    5.8430   17.9430 C   0  0  0  0  0  2  0  0  0  0  0  0
   -2.2830    4.8770   17.4490 C   0  0  0  0  0  0  0  0  0  0  0  0
   -3.3950    4.5750   18.2460 C   0  0  0  0  0  3  0  0  0  0  0  0
   -4.3530    3.6620   17.8050 C   0  0  0  0  0  3  0  0  0  0  0  0
   -4.2010    3.0480   16.5670 C   0  0  0  0  0  0  0  0  0  0  0  0
   -3.1040    3.3340   15.7610 C   0  0  0  0  0  3  0  0  0  0  0  0
   -2.1450    4.2470   16.2030 C   0  0  0  0  0  3  0  0  0  0  0  0
   -5.1590    2.1600   16.1770 O   0  0  0  0  0  0  0  0  0  0  0  0
   -4.9320    1.8300   15.2920 H   0  0  0  0  0  0  0  0  0  0  0  0
  1  2  2  0  0  0  0
  3  2  2  0  0  0  0
  3  4  1  0  0  0  0
  5 11  1  0  0  0  0
  5  4  2  0  0  0  0
  6  5  1  0  0  0  0
  7  8  1  0  0  0  0
  7  6  2  0  0  0  0
  8  3  1  0  0  0  0
  9  8  1  0  0  0  0
  9  1  1  0  0  0  0
 10  7  1  0  0  0  0
 11 20  1  0  0  0  0
 12 10  1  0  0  0  0
 13 10  1  0  0  0  0
 14 11  1  0  0  0  0
 15 19  2  0  0  0  0
 16 15  1  0  0  0  0
 16 17  2  0  0  0  0
 17  1  1  0  0  0  0
 17 18  1  0  0  0  0
 19 18  1  0  0  0  0
 20 21  1  0  0  0  0
 22 21  1  0  0  0  0
 22 23  1  0  0  0  0
 24 23  2  0  0  0  0
 25 24  1  0  0  0  0
 26 27  1  0  0  0  0
 26 25  2  0  0  0  0
 27 22  2  0  0  0  0
 28 25  1  0  0  0  0
 29 28  1  0  0  0  0
M  END
>  <minimizedAffinity>
-7.71121407

$$$$
