
 OpenBabel11102118173D

 29 32  0  0  0  0  0  0  0  0999 V2000
   -2.9910   12.1290   15.3590 C   0  0  0  0  0  0  0  0  0  0  0  0
   -4.0420   11.2430   15.2300 N   0  0  0  0  0  4  0  0  0  0  0  0
   -3.5500   10.1070   15.6700 C   0  0  0  0  0  0  0  0  0  0  0  0
   -4.0970    8.8780   15.8150 N   0  0  0  0  0  0  0  0  0  0  0  0
   -3.3390    7.9430   16.3230 C   0  0  0  0  0  0  0  0  0  0  0  0
   -2.0190    8.1220   16.6900 N   0  0  0  0  0  0  0  0  0  0  0  0
   -1.4800    9.2950   16.5520 C   0  0  0  0  0  0  0  0  0  0  0  0
   -2.2590   10.3220   16.0340 N   0  0  0  0  0  0  0  0  0  0  0  0
   -1.8570   11.5940   15.8470 N   0  0  0  0  0  2  0  0  0  0  0  0
   -0.1830    9.5520   16.8980 N   0  0  0  0  0  0  0  0  0  0  0  0
   -3.8170    6.6870   16.5320 N   0  0  0  0  0  0  0  0  0  0  0  0
    0.1990   10.4860   16.7850 H   0  0  0  0  0  0  0  0  0  0  0  0
    0.3910    8.8170   17.2880 H   0  0  0  0  0  0  0  0  0  0  0  0
   -3.1550    6.0090   16.8890 H   0  0  0  0  0  0  0  0  0  0  0  0
   -3.0770   15.8200   15.0570 C   0  0  0  0  0  3  0  0  0  0  0  0
   -2.7870   14.6490   15.7970 C   0  0  0  0  0  3  0  0  0  0  0  0
   -3.1180   13.5730   14.9940 C   0  0  0  0  0  0  0  0  0  0  0  0
   -3.5940   14.0370   13.7960 O   0  0  0  0  0  0  0  0  0  0  0  0
   -3.5660   15.3920   13.8450 C   0  0  0  0  0  3  0  0  0  0  0  0
   -5.1210    6.2060   16.1360 C   0  0  0  0  0  2  0  0  0  0  0  0
   -5.0720    4.7230   15.7540 C   0  0  0  0  0  2  0  0  0  0  0  0
   -4.0950    3.9370   16.6010 C   0  0  0  0  0  0  0  0  0  0  0  0
   -3.8690    4.2940   17.9370 C   0  0  0  0  0  3  0  0  0  0  0  0
   -2.9460    3.5890   18.7100 C   0  0  0  0  0  3  0  0  0  0  0  0
   -2.2460    2.5270   18.1500 C   0  0  0  0  0  0  0  0  0  0  0  0
   -2.4560    2.1570   16.8250 C   0  0  0  0  0  3  0  0  0  0  0  0
   -3.3790    2.8630   16.0520 C   0  0  0  0  0  3  0  0  0  0  0  0
   -1.3520    1.8680   18.9400 O   0  0  0  0  0  0  0  0  0  0  0  0
   -0.9580    1.1460   18.4250 H   0  0  0  0  0  0  0  0  0  0  0  0
  1  9  1  0  0  0  0
  2  1  2  0  0  0  0
  2  3  2  0  0  0  0
  3  4  1  0  0  0  0
  3  8  1  0  0  0  0
  4  5  2  0  0  0  0
  5 11  1  0  0  0  0
  5  6  1  0  0  0  0
  7  6  2  0  0  0  0
  7 10  1  0  0  0  0
  8  7  1  0  0  0  0
  9  8  1  0  0  0  0
 10 13  1  0  0  0  0
 11 14  1  0  0  0  0
 12 10  1  0  0  0  0
 15 16  1  0  0  0  0
 17  1  1  0  0  0  0
 17 16  2  0  0  0  0
 18 19  1  0  0  0  0
 18 17  1  0  0  0  0
 19 15  2  0  0  0  0
 20 11  1  0  0  0  0
 21 20  1  0  0  0  0
 21 22  1  0  0  0  0
 22 23  1  0  0  0  0
 23 24  2  0  0  0  0
 25 24  1  0  0  0  0
 25 28  1  0  0  0  0
 26 25  2  0  0  0  0
 27 22  2  0  0  0  0
 27 26  1  0  0  0  0
 29 28  1  0  0  0  0
M  END
>  <minimizedAffinity>
-8.60855865

$$$$
