
 OpenBabel11102118173D

 29 32  0  0  0  0  0  0  0  0999 V2000
   -1.6550    5.5870   17.4730 C   0  0  0  0  0  0  0  0  0  0  0  0
   -2.5140    6.4280   16.7960 N   0  0  0  0  0  4  0  0  0  0  0  0
   -1.8860    7.5820   16.7950 C   0  0  0  0  0  0  0  0  0  0  0  0
   -2.2050    8.7880   16.2680 N   0  0  0  0  0  0  0  0  0  0  0  0
   -1.3360    9.7520   16.4120 C   0  0  0  0  0  0  0  0  0  0  0  0
   -0.1370    9.6270   17.0870 N   0  0  0  0  0  0  0  0  0  0  0  0
    0.1800    8.4780   17.6030 C   0  0  0  0  0  0  0  0  0  0  0  0
   -0.7100    7.4200   17.4540 N   0  0  0  0  0  0  0  0  0  0  0  0
   -0.5210    6.1670   17.9100 N   0  0  0  0  0  2  0  0  0  0  0  0
    1.3490    8.2740   18.2800 N   0  0  0  0  0  0  0  0  0  0  0  0
   -1.5610   10.9850   15.8880 N   0  0  0  0  0  0  0  0  0  0  0  0
    1.5660    7.3570   18.6590 H   0  0  0  0  0  0  0  0  0  0  0  0
    2.0110    9.0310   18.3850 H   0  0  0  0  0  0  0  0  0  0  0  0
   -0.8590   11.6890   16.0790 H   0  0  0  0  0  0  0  0  0  0  0  0
   -2.0940    2.0760   18.5710 C   0  0  0  0  0  3  0  0  0  0  0  0
   -1.6130    3.3880   18.7960 C   0  0  0  0  0  3  0  0  0  0  0  0
   -1.9630    4.1400   17.6890 C   0  0  0  0  0  0  0  0  0  0  0  0
   -2.6390    3.3460   16.8020 O   0  0  0  0  0  0  0  0  0  0  0  0
   -2.7120    2.1040   17.3430 C   0  0  0  0  0  3  0  0  0  0  0  0
   -2.7770   11.4140   15.2330 C   0  0  0  0  0  2  0  0  0  0  0  0
   -3.6460   12.2540   16.1740 C   0  0  0  0  0  2  0  0  0  0  0  0
   -3.0570   13.6220   16.4420 C   0  0  0  0  0  0  0  0  0  0  0  0
   -2.4840   13.9150   17.6870 C   0  0  0  0  0  3  0  0  0  0  0  0
   -1.9680   15.1850   17.9450 C   0  0  0  0  0  3  0  0  0  0  0  0
   -2.0250   16.1650   16.9620 C   0  0  0  0  0  0  0  0  0  0  0  0
   -2.5900   15.8950   15.7190 C   0  0  0  0  0  3  0  0  0  0  0  0
   -3.1070   14.6240   15.4610 C   0  0  0  0  0  3  0  0  0  0  0  0
   -1.5120   17.3930   17.2580 O   0  0  0  0  0  0  0  0  0  0  0  0
   -1.6020   17.9620   16.4770 H   0  0  0  0  0  0  0  0  0  0  0  0
  1 17  1  0  0  0  0
  1  9  1  0  0  0  0
  2  1  2  0  0  0  0
  3  2  2  0  0  0  0
  3  8  1  0  0  0  0
  4  5  2  0  0  0  0
  4  3  1  0  0  0  0
  5  6  1  0  0  0  0
  6  7  2  0  0  0  0
  7 10  1  0  0  0  0
  8  7  1  0  0  0  0
  8  9  1  0  0  0  0
 10 13  1  0  0  0  0
 10 12  1  0  0  0  0
 11 14  1  0  0  0  0
 11  5  1  0  0  0  0
 15 16  1  0  0  0  0
 17 16  2  0  0  0  0
 18 19  1  0  0  0  0
 18 17  1  0  0  0  0
 19 15  2  0  0  0  0
 20 11  1  0  0  0  0
 20 21  1  0  0  0  0
 21 22  1  0  0  0  0
 22 23  1  0  0  0  0
 23 24  2  0  0  0  0
 25 28  1  0  0  0  0
 25 24  1  0  0  0  0
 26 25  2  0  0  0  0
 27 26  1  0  0  0  0
 27 22  2  0  0  0  0
 29 28  1  0  0  0  0
M  END
>  <minimizedAffinity>
-8.93101692

$$$$
