
 OpenBabel11102118173D

 29 32  0  0  0  0  0  0  0  0999 V2000
   -0.3220   12.9960   15.3210 C   0  0  0  0  0  0  0  0  0  0  0  0
    0.0780   11.7360   15.7160 N   0  0  0  0  0  4  0  0  0  0  0  0
   -1.0500   11.0700   15.8270 C   0  0  0  0  0  0  0  0  0  0  0  0
   -1.3140    9.7840   16.1580 N   0  0  0  0  0  0  0  0  0  0  0  0
   -2.5650    9.4100   16.1460 C   0  0  0  0  0  0  0  0  0  0  0  0
   -3.6270   10.2430   15.8490 N   0  0  0  0  0  0  0  0  0  0  0  0
   -3.3880   11.4800   15.5350 C   0  0  0  0  0  0  0  0  0  0  0  0
   -2.0670   11.9130   15.5160 N   0  0  0  0  0  0  0  0  0  0  0  0
   -1.6530   13.1540   15.1930 N   0  0  0  0  0  2  0  0  0  0  0  0
   -4.3830   12.3640   15.2230 N   0  0  0  0  0  0  0  0  0  0  0  0
   -2.9190    8.1290   16.4350 N   0  0  0  0  0  0  0  0  0  0  0  0
   -4.1550   13.3210   14.9720 H   0  0  0  0  0  0  0  0  0  0  0  0
   -5.3460   12.0590   15.2210 H   0  0  0  0  0  0  0  0  0  0  0  0
   -3.9110    7.9290   16.4460 H   0  0  0  0  0  0  0  0  0  0  0  0
    2.1380   15.4510   14.0380 C   0  0  0  0  0  3  0  0  0  0  0  0
    1.3010   14.3260   13.8440 C   0  0  0  0  0  3  0  0  0  0  0  0
    0.6560   14.0920   15.0450 C   0  0  0  0  0  0  0  0  0  0  0  0
    1.0600   15.0260   15.9610 O   0  0  0  0  0  0  0  0  0  0  0  0
    1.9530   15.8390   15.3440 C   0  0  0  0  0  3  0  0  0  0  0  0
   -2.0210    7.0890   16.8840 C   0  0  0  0  0  2  0  0  0  0  0  0
   -2.7630    5.7630   17.0810 C   0  0  0  0  0  2  0  0  0  0  0  0
   -1.9200    4.7250   17.7900 C   0  0  0  0  0  0  0  0  0  0  0  0
   -0.6530    5.0610   18.2870 C   0  0  0  0  0  3  0  0  0  0  0  0
    0.1370    4.0980   18.9140 C   0  0  0  0  0  3  0  0  0  0  0  0
   -0.3360    2.7970   19.0450 C   0  0  0  0  0  0  0  0  0  0  0  0
   -1.5900    2.4440   18.5590 C   0  0  0  0  0  3  0  0  0  0  0  0
   -2.3810    3.4080   17.9310 C   0  0  0  0  0  3  0  0  0  0  0  0
    0.4710    1.8880   19.6630 O   0  0  0  0  0  0  0  0  0  0  0  0
    0.0050    1.0370   19.6990 H   0  0  0  0  0  0  0  0  0  0  0  0
  1  2  2  0  0  0  0
  2  3  2  0  0  0  0
  3  4  1  0  0  0  0
  5  4  2  0  0  0  0
  5 11  1  0  0  0  0
  6  5  1  0  0  0  0
  7  6  2  0  0  0  0
  8  7  1  0  0  0  0
  8  3  1  0  0  0  0
  9  1  1  0  0  0  0
  9  8  1  0  0  0  0
 10  7  1  0  0  0  0
 11 14  1  0  0  0  0
 11 20  1  0  0  0  0
 12 10  1  0  0  0  0
 13 10  1  0  0  0  0
 15 19  2  0  0  0  0
 16 15  1  0  0  0  0
 16 17  2  0  0  0  0
 17  1  1  0  0  0  0
 17 18  1  0  0  0  0
 19 18  1  0  0  0  0
 20 21  1  0  0  0  0
 21 22  1  0  0  0  0
 22 27  2  0  0  0  0
 22 23  1  0  0  0  0
 23 24  2  0  0  0  0
 24 25  1  0  0  0  0
 25 28  1  0  0  0  0
 26 25  2  0  0  0  0
 27 26  1  0  0  0  0
 28 29  1  0  0  0  0
M  END
>  <minimizedAffinity>
-8.89107227

$$$$
